/*--------------------------------*- C++ -*----------------------------------*\
| =========                 |                                                 |
| \\      /  F ield         | OpenFOAM: The Open Source CFD Toolbox           |
|  \\    /   O peration     | Version:  2312                                  |
|   \\  /    A nd           | Website:  www.openfoam.com                      |
|    \\/     M anipulation  |                                                 |
\*---------------------------------------------------------------------------*/
FoamFile
{
    version     2.0;
    format      ascii;
    arch        "LSB;label=32;scalar=64";
    class       polyBoundaryMesh;
    location    "constant/polyMesh";
    object      boundary;
}
// * * * * * * * * * * * * * * * * * * * * * * * * * * * * * * * * * * * * * //

4
(
    lowerSideWalls
    {
        type            wall;
        inGroups        1(wall);
        nFaces          1600;
        startFace       92400;
    }
    upperSideWalls
    {
        type            wall;
        inGroups        1(wall);
        nFaces          4800;
        startFace       94000;
    }
    lowerWall
    {
        type            wall;
        inGroups        1(wall);
        nFaces          400;
        startFace       98800;
    }
    atmosphere
    {
        type            patch;
        nFaces          400;
        startFace       99200;
    }
)

// ************************************************************************* //
