/*--------------------------------*- C++ -*----------------------------------*\
| =========                 |                                                 |
| \\      /  F ield         | OpenFOAM: The Open Source CFD Toolbox           |
|  \\    /   O peration     | Version:  2312                                  |
|   \\  /    A nd           | Website:  www.openfoam.com                      |
|    \\/     M anipulation  |                                                 |
\*---------------------------------------------------------------------------*/
FoamFile
{
    version     2.0;
    format      ascii;
    arch        "LSB;label=32;scalar=64";
    class       polyBoundaryMesh;
    location    "constant/polyMesh";
    object      boundary;
}
// * * * * * * * * * * * * * * * * * * * * * * * * * * * * * * * * * * * * * //

6
(
    lowerSideWalls
    {
        type            wall;
        inGroups        1(wall);
        nFaces          800;
        startFace       22600;
    }
    upperSideWalls
    {
        type            wall;
        inGroups        1(wall);
        nFaces          800;
        startFace       23400;
    }
    lowerWall
    {
        type            wall;
        inGroups        1(wall);
        nFaces          200;
        startFace       24200;
    }
    atmosphere
    {
        type            patch;
        nFaces          0;
        startFace       24400;
    }
    procBoundary0to1
    {
        type            processor;
        inGroups        1(processor);
        nFaces          800;
        startFace       24400;
        matchTolerance  0.0001;
        transform       unknown;
        myProcNo        0;
        neighbProcNo    1;
    }
    procBoundary0to2
    {
        type            processor;
        inGroups        1(processor);
        nFaces          200;
        startFace       25200;
        matchTolerance  0.0001;
        transform       unknown;
        myProcNo        0;
        neighbProcNo    2;
    }
)

// ************************************************************************* //
