/*--------------------------------*- C++ -*----------------------------------*\
| =========                 |                                                 |
| \\      /  F ield         | OpenFOAM: The Open Source CFD Toolbox           |
|  \\    /   O peration     | Version:  v2312                                 |
|   \\  /    A nd           | Website:  www.openfoam.com                      |
|    \\/     M anipulation  |                                                 |
\*---------------------------------------------------------------------------*/
FoamFile
{
    version     2.0;
    format      ascii;
    class       dictionary;
    object      blockMeshDict;
}
// * * * * * * * * * * * * * * * * * * * * * * * * * * * * * * * * * * * * * //

convertToMeters                   0.025;

vertices
(
    // Bottom plane
    (0 0 0)  // 0
    (4 0 0)  // 1
    (4 0 4)  // 2
    (0 0 4)  // 3
    // Middle plane
    (0 4 0)  // 4 over 0
    (4 4 0)  // 5 over 1
    (4 4 4)  // 6 over 2
    (0 4 4)  // 7 over 3
    // Upper plane
    (0 16 0) // 8 over 4
    (4 16 0) // 9 over 5
    (4 16 4) // 10 over 6
    (0 16 4) // 11 over 7
);

blocks
(
    hex (0 1 5 4 3 2 6 7) (20 20 20) simpleGrading (1 1 1)
    hex (4 5 9 8 7 6 10 11) (20 60 20) simpleGrading (1 1 1)
);

edges
(
);

boundary
(
    lowerSideWalls
    {
        type wall;
        faces
        (
            (0 1 5 4)
            (1 2 6 5)
            (2 3 7 6)
            (3 0 4 7)
        );
    }
    upperSideWalls
    {
        type wall;
        faces
        (
            (4 5 9 8)
            (5 6 10 9)
            (6 7 11 10)
            (7 4 8 11)
        );
    }
    lowerWall
    {
        type wall;
        faces
        (
            (0 1 2 3)
        );
    }
    atmosphere
    {
        type patch;
        faces
        (
            (8 9 10 11)
        );
    }
);

mergePatchPairs
(
);


// ************************************************************************* //
