
/*--------------------------------*- C++ -*----------------------------------*\
| =========                 |                                                 |
| \\      /  F ield         | OpenFOAM: The Open Source CFD Toolbox           |
|  \\    /   O peration     | Version:  v2312                                 |
|   \\  /    A nd           | Website:  www.openfoam.com                      |
|    \\/     M anipulation  |                                                 |
\*---------------------------------------------------------------------------*/
FoamFile
{
    version     2.0;
    format      ascii;
    class       dictionary;
    object      setFieldsDict;
}
// * * * * * * * * * * * * * * * * * * * * * * * * * * * * * * * * * * * * * //

defaultFieldValues
(
    volScalarFieldValue alpha.water 0
);

regions
(
    boxToCell
    {
        box (0 0 0) (0.1 0.04 0.1);
        fieldValues
        (
            volScalarFieldValue alpha.water 1
        );
    }
    sphereToCell
    {
        centre (0.05 0.38 0.05);
        radius 0.01;
        fieldValues
        (
            volScalarFieldValue alpha.water 1
            volVectorFieldValue U (0 -2 0)
        );
    }
);


// ************************************************************************* //
